<?xml version="1.0" encoding="ISO-8859-1"?>
<febio_spec version="3.0">
	<Module type="biphasic"/>
	<Control>
		<analysis>TRANSIENT</analysis>
		<time_steps>1400</time_steps>
		<step_size>0.005</step_size>
		<solver>
			<max_refs>15</max_refs>
			<max_ups>10</max_ups>
			<diverge_reform>1</diverge_reform>
			<reform_each_time_step>1</reform_each_time_step>
			<dtol>0.001</dtol>
			<etol>0.01</etol>
			<rtol>0</rtol>
			<ptol>0.01</ptol>
			<lstol>0.9</lstol>
			<min_residual>1e-20</min_residual>
			<qnmethod>BFGS</qnmethod>
			<mixed_formulation>default</mixed_formulation>
		</solver>
		<time_stepper>
			<dtmin>0.002</dtmin>
			<dtmax>0.01</dtmax>
			<max_retries>5</max_retries>
			<opt_iter>10</opt_iter>
		</time_stepper>
	</Control>
	<Globals>
		<Constants>
			<T>0</T>
			<R>0</R>
			<Fc>0</Fc>
		</Constants>
	</Globals>
	<Material>
		<material id="1" name="skin" type="biphasic">
			<phi0>0.2</phi0>
			<fluid_density>1000</fluid_density>
			<solid type="neo-Hookean">
				<density>1000</density>
				<E>10000</E>
				<v>0.4</v>
			</solid>
			<permeability type="perm-const-iso">
				<perm>5e-11</perm>
			</permeability>
		</material>
		<material id="2" name="adipose" type="biphasic">
			<phi0>0.2</phi0>
			<fluid_density>1000</fluid_density>
			<solid type="neo-Hookean">
				<density>1000</density>
				<E>10000</E>
				<v>0.4</v>
			</solid>
			<permeability type="perm-const-iso">
				<perm>5e-11</perm>
			</permeability>
		</material>
	</Material>
	<Mesh>
		<Nodes name="MergedObject1">
			<node id="1">0,0,0</node>
			<node id="2">0.164357304,0,0</node>
			<node id="3">0.164132058,0.00860179652,0</node>
			<node id="4">0.304061012,0,0</node>
			<node id="5">0.303644307,0.0159133236,0</node>
			<node id="6">0.422809164,0,0</node>
			<node id="7">0.422229719,0.0221281215,0</node>
			<node id="8">0.523745094,0,0</node>
			<node id="9">0.523027319,0.0274106998,0</node>
			<node id="10">0.609540634,0,0</node>
			<node id="11">0.608705279,0.0319008914,0</node>
			<node id="12">0.682466842,0,0</node>
			<node id="13">0.681531545,0.0357175542,0</node>
			<node id="14">0.74445412,0,0</node>
			<node id="15">0.743433872,0.0389617176,0</node>
			<node id="16">0.797143306,0,0</node>
			<node id="17">0.796050849,0.0417192565,0</node>
			<node id="18">0.841929114,0,0</node>
			<node id="19">0.840775279,0.0440631645,0</node>
			<node id="20">0.879997051,0,0</node>
<!-- ... 1871 like lines cut -->
		</Nodes>
		<Elements type="penta6" name="Part1">
			<elem id="1">1,2,3,31,32,33</elem>
			<elem id="2">31,32,33,62,63,64</elem>
			<elem id="3">62,63,64,93,94,95</elem>
			<elem id="4">93,94,95,124,125,126</elem>
			<elem id="5">124,125,126,155,156,157</elem>
			<elem id="6">155,156,157,186,187,188</elem>
			<elem id="7">186,187,188,217,218,219</elem>
			<elem id="8">217,218,219,248,249,250</elem>
			<elem id="9">248,249,250,279,280,281</elem>
			<elem id="10">279,280,281,310,311,312</elem>
			<elem id="11">310,311,312,341,342,343</elem>
			<elem id="12">341,342,343,372,373,374</elem>
			<elem id="13">372,373,374,403,404,405</elem>
			<elem id="14">403,404,405,434,435,436</elem>
			<elem id="15">434,435,436,465,466,467</elem>
			<elem id="16">465,466,467,496,497,498</elem>
			<elem id="17">496,497,498,527,528,529</elem>
			<elem id="18">527,528,529,558,559,560</elem>
			<elem id="19">558,559,560,589,590,591</elem>
			<elem id="20">589,590,591,1278,620,621</elem>
		</Elements>
		<Elements type="hex8" name="Part1__2">
			<elem id="21">2,4,5,3,32,34,35,33</elem>
			<elem id="22">4,6,7,5,34,36,37,35</elem>
			<elem id="23">6,8,9,7,36,38,39,37</elem>
			<elem id="24">8,10,11,9,38,40,41,39</elem>
			<elem id="25">10,12,13,11,40,42,43,41</elem>
			<elem id="26">12,14,15,13,42,44,45,43</elem>
			<elem id="27">14,16,17,15,44,46,47,45</elem>
			<elem id="28">16,18,19,17,46,48,49,47</elem>
			<elem id="29">18,20,21,19,48,50,51,49</elem>
			<elem id="30">20,22,23,21,50,52,53,51</elem>
			<elem id="31">22,24,25,23,52,54,55,53</elem>
			<elem id="32">24,26,27,25,54,56,57,55</elem>
			<elem id="33">26,28,29,27,56,58,59,57</elem>
			<elem id="34">28,648,30,29,58,60,61,59</elem>
			<elem id="35">32,34,35,33,63,65,66,64</elem>
			<elem id="36">34,36,37,35,65,67,68,66</elem>
			<elem id="37">36,38,39,37,67,69,70,68</elem>
			<elem id="38">38,40,41,39,69,71,72,70</elem>
			<elem id="39">40,42,43,41,71,73,74,72</elem>
			<elem id="40">42,44,45,43,73,75,76,74</elem>
<!-- ... 260 like lines cut -->
		</Elements>
		<Elements type="hex8" name="Part3">
			<elem id="301">648,650,984,30,60,699,1012,61</elem>
			<elem id="302">650,651,985,984,699,700,1013,1012</elem>
			<elem id="303">651,652,986,985,700,701,1014,1013</elem>
			<elem id="304">652,653,987,986,701,702,1015,1014</elem>
			<elem id="305">653,654,988,987,702,703,1016,1015</elem>
			<elem id="306">654,655,989,988,703,704,1017,1016</elem>
			<elem id="307">655,656,990,989,704,705,1018,1017</elem>
			<elem id="308">656,657,991,990,705,706,1019,1018</elem>
			<elem id="309">657,658,992,991,706,707,1020,1019</elem>
			<elem id="310">658,659,993,992,707,708,1021,1020</elem>
			<elem id="311">659,660,994,993,708,709,1022,1021</elem>
			<elem id="312">660,661,995,994,709,710,1023,1022</elem>
			<elem id="313">661,662,996,995,710,711,1024,1023</elem>
			<elem id="314">662,663,997,996,711,712,1025,1024</elem>
			<elem id="315">663,649,697,997,712,664,965,1025</elem>
			<elem id="316">60,699,1012,61,91,713,1026,92</elem>
			<elem id="317">699,700,1013,1012,713,714,1027,1026</elem>
			<elem id="318">700,701,1014,1013,714,715,1028,1027</elem>
			<elem id="319">701,702,1015,1014,715,716,1029,1028</elem>
			<elem id="320">702,703,1016,1015,716,717,1030,1029</elem>
<!-- ... 280 like lines cut -->
		</Elements>
		<Elements type="penta6" name="Part2">
			<elem id="601">1278,620,621,1280,1281,1282</elem>
			<elem id="602">1280,1281,1282,1311,1312,1313</elem>
			<elem id="603">1311,1312,1313,1342,1343,1344</elem>
			<elem id="604">1342,1343,1344,1373,1374,1375</elem>
			<elem id="605">1373,1374,1375,1404,1405,1406</elem>
			<elem id="606">1404,1405,1406,1435,1436,1437</elem>
			<elem id="607">1435,1436,1437,1466,1467,1468</elem>
			<elem id="608">1466,1467,1468,1497,1498,1499</elem>
			<elem id="609">1497,1498,1499,1528,1529,1530</elem>
			<elem id="610">1528,1529,1530,1559,1560,1561</elem>
		</Elements>
		<Elements type="hex8" name="Part2__2">
			<elem id="611">620,622,623,621,1281,1283,1284,1282</elem>
			<elem id="612">622,624,625,623,1283,1285,1286,1284</elem>
			<elem id="613">624,626,627,625,1285,1287,1288,1286</elem>
			<elem id="614">626,628,629,627,1287,1289,1290,1288</elem>
			<elem id="615">628,630,631,629,1289,1291,1292,1290</elem>
			<elem id="616">630,632,633,631,1291,1293,1294,1292</elem>
			<elem id="617">632,634,635,633,1293,1295,1296,1294</elem>
			<elem id="618">634,636,637,635,1295,1297,1298,1296</elem>
			<elem id="619">636,638,639,637,1297,1299,1300,1298</elem>
			<elem id="620">638,640,641,639,1299,1301,1302,1300</elem>
			<elem id="621">640,642,643,641,1301,1303,1304,1302</elem>
			<elem id="622">642,644,645,643,1303,1305,1306,1304</elem>
			<elem id="623">644,646,647,645,1305,1307,1308,1306</elem>
			<elem id="624">646,1589,1279,647,1307,1309,1310,1308</elem>
			<elem id="625">1281,1283,1284,1282,1312,1314,1315,1313</elem>
			<elem id="626">1283,1285,1286,1284,1314,1316,1317,1315</elem>
			<elem id="627">1285,1287,1288,1286,1316,1318,1319,1317</elem>
			<elem id="628">1287,1289,1290,1288,1318,1320,1321,1319</elem>
			<elem id="629">1289,1291,1292,1290,1320,1322,1323,1321</elem>
			<elem id="630">1291,1293,1294,1292,1322,1324,1325,1323</elem>
<!-- ... 120 like lines cut -->
		</Elements>
		<Elements type="hex8" name="Part4">
			<elem id="751">1589,696,998,1279,1309,1617,1766,1310</elem>
			<elem id="752">696,695,999,998,1617,1618,1767,1766</elem>
			<elem id="753">695,694,1000,999,1618,1619,1768,1767</elem>
			<elem id="754">694,693,1001,1000,1619,1620,1769,1768</elem>
			<elem id="755">693,692,1002,1001,1620,1621,1770,1769</elem>
			<elem id="756">692,691,1003,1002,1621,1622,1771,1770</elem>
			<elem id="757">691,690,1004,1003,1622,1623,1772,1771</elem>
			<elem id="758">690,689,1005,1004,1623,1624,1773,1772</elem>
			<elem id="759">689,688,1006,1005,1624,1625,1774,1773</elem>
			<elem id="760">688,687,1007,1006,1625,1626,1775,1774</elem>
			<elem id="761">687,686,1008,1007,1626,1627,1776,1775</elem>
			<elem id="762">686,685,1009,1008,1627,1628,1777,1776</elem>
			<elem id="763">685,684,1010,1009,1628,1629,1778,1777</elem>
			<elem id="764">684,683,1011,1010,1629,1630,1779,1778</elem>
			<elem id="765">683,1590,698,1011,1630,1593,1743,1779</elem>
			<elem id="766">1309,1617,1766,1310,1340,1631,1780,1341</elem>
			<elem id="767">1617,1618,1767,1766,1631,1632,1781,1780</elem>
			<elem id="768">1618,1619,1768,1767,1632,1633,1782,1781</elem>
			<elem id="769">1619,1620,1769,1768,1633,1634,1783,1782</elem>
			<elem id="770">1620,1621,1770,1769,1634,1635,1784,1783</elem>
<!-- ... 130 like lines cut -->
		</Elements>
		<NodeSet name="Fix axis">
			<n id="1"/>
			<n id="31"/>
			<n id="62"/>
			<n id="93"/>
			<n id="124"/>
			<n id="155"/>
			<n id="186"/>
			<n id="217"/>
			<n id="248"/>
			<n id="279"/>
			<n id="310"/>
			<n id="341"/>
			<n id="372"/>
			<n id="403"/>
			<n id="434"/>
			<n id="465"/>
			<n id="496"/>
			<n id="527"/>
			<n id="558"/>
			<n id="589"/>
<!-- ... 11 like lines cut -->
		</NodeSet>
		<Surface name="Fix the bottom">
			<tri3 id="1">1,3,2</tri3>
			<quad4 id="2">3,5,4,2</quad4>
			<quad4 id="3">5,7,6,4</quad4>
			<quad4 id="4">7,9,8,6</quad4>
			<quad4 id="5">9,11,10,8</quad4>
			<quad4 id="6">11,13,12,10</quad4>
			<quad4 id="7">13,15,14,12</quad4>
			<quad4 id="8">15,17,16,14</quad4>
			<quad4 id="9">17,19,18,16</quad4>
			<quad4 id="10">19,21,20,18</quad4>
			<quad4 id="11">21,23,22,20</quad4>
			<quad4 id="12">23,25,24,22</quad4>
			<quad4 id="13">25,27,26,24</quad4>
			<quad4 id="14">27,29,28,26</quad4>
			<quad4 id="15">29,30,648,28</quad4>
			<quad4 id="16">30,984,650,648</quad4>
			<quad4 id="17">984,985,651,650</quad4>
			<quad4 id="18">985,986,652,651</quad4>
			<quad4 id="19">986,987,653,652</quad4>
			<quad4 id="20">987,988,654,653</quad4>
			<quad4 id="21">988,989,655,654</quad4>
<!-- ... 9 like lines cut -->
		</Surface>
		<Surface name="Fix probe-skin contact surface">
			<quad4 id="1">1591,1615,1752,1588</quad4>
			<quad4 id="2">1615,1614,1753,1752</quad4>
			<quad4 id="3">1614,1613,1754,1753</quad4>
			<quad4 id="4">1613,1612,1755,1754</quad4>
			<quad4 id="5">1612,1611,1756,1755</quad4>
			<quad4 id="6">1611,1610,1757,1756</quad4>
			<quad4 id="7">1610,1609,1758,1757</quad4>
			<quad4 id="8">1609,1608,1759,1758</quad4>
			<quad4 id="9">1608,1607,1760,1759</quad4>
			<quad4 id="10">1607,1606,1761,1760</quad4>
			<quad4 id="11">1606,1605,1762,1761</quad4>
			<quad4 id="12">1605,1604,1763,1762</quad4>
			<quad4 id="13">1604,1603,1764,1763</quad4>
			<quad4 id="14">1603,1602,1765,1764</quad4>
			<quad4 id="15">1602,1592,1616,1765</quad4>
		</Surface>
		<Surface name="FixedEffectiveFluidPressure1">
			<quad4 id="1">649,697,965,664</quad4>
			<quad4 id="2">664,965,966,665</quad4>
			<quad4 id="3">665,966,967,666</quad4>
			<quad4 id="4">666,967,968,667</quad4>
			<quad4 id="5">667,968,969,668</quad4>
			<quad4 id="6">668,969,970,669</quad4>
			<quad4 id="7">669,970,971,670</quad4>
			<quad4 id="8">670,971,972,671</quad4>
			<quad4 id="9">671,972,973,672</quad4>
			<quad4 id="10">672,973,974,673</quad4>
			<quad4 id="11">673,974,975,674</quad4>
			<quad4 id="12">674,975,976,675</quad4>
			<quad4 id="13">675,976,977,676</quad4>
			<quad4 id="14">676,977,978,677</quad4>
			<quad4 id="15">677,978,979,678</quad4>
			<quad4 id="16">678,979,980,679</quad4>
			<quad4 id="17">679,980,981,680</quad4>
			<quad4 id="18">680,981,982,681</quad4>
			<quad4 id="19">681,982,983,682</quad4>
			<quad4 id="20">682,983,698,1590</quad4>
<!-- ... 10 like lines cut -->
		</Surface>
		<Surface name="Outer Radius surfaces">
			<quad4 id="1">649,697,965,664</quad4>
			<quad4 id="2">664,965,966,665</quad4>
			<quad4 id="3">665,966,967,666</quad4>
			<quad4 id="4">666,967,968,667</quad4>
			<quad4 id="5">667,968,969,668</quad4>
			<quad4 id="6">668,969,970,669</quad4>
			<quad4 id="7">669,970,971,670</quad4>
			<quad4 id="8">670,971,972,671</quad4>
			<quad4 id="9">671,972,973,672</quad4>
			<quad4 id="10">672,973,974,673</quad4>
			<quad4 id="11">673,974,975,674</quad4>
			<quad4 id="12">674,975,976,675</quad4>
			<quad4 id="13">675,976,977,676</quad4>
			<quad4 id="14">676,977,978,677</quad4>
			<quad4 id="15">677,978,979,678</quad4>
			<quad4 id="16">678,979,980,679</quad4>
			<quad4 id="17">679,980,981,680</quad4>
			<quad4 id="18">680,981,982,681</quad4>
			<quad4 id="19">681,982,983,682</quad4>
			<quad4 id="20">682,983,698,1590</quad4>
<!-- ... 10 like lines cut -->
		</Surface>
		<Surface name="front and back surfaces">
			<quad4 id="1">1,2,32,31</quad4>
			<quad4 id="2">2,4,34,32</quad4>
			<quad4 id="3">4,6,36,34</quad4>
			<quad4 id="4">6,8,38,36</quad4>
			<quad4 id="5">8,10,40,38</quad4>
			<quad4 id="6">10,12,42,40</quad4>
			<quad4 id="7">12,14,44,42</quad4>
			<quad4 id="8">14,16,46,44</quad4>
			<quad4 id="9">16,18,48,46</quad4>
			<quad4 id="10">18,20,50,48</quad4>
			<quad4 id="11">20,22,52,50</quad4>
			<quad4 id="12">22,24,54,52</quad4>
			<quad4 id="13">24,26,56,54</quad4>
			<quad4 id="14">26,28,58,56</quad4>
			<quad4 id="15">28,648,60,58</quad4>
			<quad4 id="16">31,32,63,62</quad4>
			<quad4 id="17">32,34,65,63</quad4>
			<quad4 id="18">34,36,67,65</quad4>
			<quad4 id="19">36,38,69,67</quad4>
			<quad4 id="20">38,40,71,69</quad4>
<!-- ... 1780 like lines cut -->
		</Surface>
		<Surface name="Suction load">
			<tri3 id="1">1559,1560,1561</tri3>
			<quad4 id="2">1560,1562,1563,1561</quad4>
			<quad4 id="3">1562,1564,1565,1563</quad4>
			<quad4 id="4">1564,1566,1567,1565</quad4>
			<quad4 id="5">1566,1568,1569,1567</quad4>
			<quad4 id="6">1568,1570,1571,1569</quad4>
			<quad4 id="7">1570,1572,1573,1571</quad4>
			<quad4 id="8">1572,1574,1575,1573</quad4>
			<quad4 id="9">1574,1576,1577,1575</quad4>
			<quad4 id="10">1576,1578,1579,1577</quad4>
			<quad4 id="11">1578,1580,1581,1579</quad4>
			<quad4 id="12">1580,1582,1583,1581</quad4>
			<quad4 id="13">1582,1584,1585,1583</quad4>
			<quad4 id="14">1584,1586,1587,1585</quad4>
			<quad4 id="15">1586,1591,1588,1587</quad4>
		</Surface>
		<Surface name="SymmetryPlane1">
			<quad4 id="1">1,2,32,31</quad4>
			<quad4 id="2">2,4,34,32</quad4>
			<quad4 id="3">4,6,36,34</quad4>
			<quad4 id="4">6,8,38,36</quad4>
			<quad4 id="5">8,10,40,38</quad4>
			<quad4 id="6">10,12,42,40</quad4>
			<quad4 id="7">12,14,44,42</quad4>
			<quad4 id="8">14,16,46,44</quad4>
			<quad4 id="9">16,18,48,46</quad4>
			<quad4 id="10">18,20,50,48</quad4>
			<quad4 id="11">20,22,52,50</quad4>
			<quad4 id="12">22,24,54,52</quad4>
			<quad4 id="13">24,26,56,54</quad4>
			<quad4 id="14">26,28,58,56</quad4>
			<quad4 id="15">28,648,60,58</quad4>
			<quad4 id="16">31,32,63,62</quad4>
			<quad4 id="17">32,34,65,63</quad4>
			<quad4 id="18">34,36,67,65</quad4>
			<quad4 id="19">36,38,69,67</quad4>
			<quad4 id="20">38,40,71,69</quad4>
<!-- ... 1780 like lines cut -->
		</Surface>
	</Mesh>
	<MeshDomains>
		<SolidDomain name="Part1" mat="adipose"/>
		<SolidDomain name="Part1__2" mat="adipose"/>
		<SolidDomain name="Part3" mat="adipose"/>
		<SolidDomain name="Part2" mat="skin"/>
		<SolidDomain name="Part2__2" mat="skin"/>
		<SolidDomain name="Part4" mat="skin"/>
	</MeshDomains>
	<Boundary>
		<bc name="Fix the bottom" type="fix" node_set="@surface:Fix the bottom">
			<dofs>x,y,z</dofs>
		</bc>
		<bc name="Fix probe-skin contact surface" type="fix" node_set="@surface:Fix probe-skin contact surface">
			<dofs>x,y,z</dofs>
		</bc>
		<bc name="Fix axis" type="fix" node_set="Fix axis">
			<dofs>x,y</dofs>
		</bc>
		<bc name="FixedEffectiveFluidPressure1" type="fix" node_set="@surface:FixedEffectiveFluidPressure1">
			<dofs>p</dofs>
		</bc>
		<bc name="Outer Radius surfaces" type="fix" node_set="@surface:Outer Radius surfaces">
			<dofs>x,y,z</dofs>
		</bc>
		<bc name="front and back surfaces" type="fix" node_set="@surface:front and back surfaces">
			<dofs>y</dofs>
		</bc>
	</Boundary>
	<Loads>
		<surface_load name="Suction load" type="pressure" surface="Suction load">
			<pressure lc="1">-50000</pressure>
			<linear>0</linear>
			<symmetric_stiffness>1</symmetric_stiffness>
		</surface_load>
	</Loads>
	<Constraints>
		<constraint type="symmetry plane" name="SymmetryPlane1" surface="SymmetryPlane1">
			<laugon>1</laugon>
			<tol>0.2</tol>
			<penalty>1000000</penalty>
			<minaug>0</minaug>
			<maxaug>10</maxaug>
		</constraint>
	</Constraints>
	<LoadData>
		<load_controller id="1" type="loadcurve">
			<interpolate>LINEAR</interpolate>
			<points>
				<point>0,0</point>
				<point>0.05,1</point>
				<point>5,1</point>
				<point>5.05,0</point>
			</points>
		</load_controller>
	</LoadData>
	<Output>
	        <logfile file="output.txt">
                        <node_data data="x;y;z" file="nodal_solution.txt">
                        1559,
                        </node_data>
                </logfile>
		<plotfile type="febio">
			<var type="displacement"/>
			<var type="stress"/>
			<var type="effective fluid pressure"/>
			<var type="fluid flux"/>
			<var type="solid stress"/>
		</plotfile>
	</Output>
</febio_spec>
